<[file][][]
    <[tmsimulator_scenery_place][][]
        <[string8][type][airport]>
        <[string8][sname][TELEMACO BORBA]>
        <[string8][lname][TELEMACO BORBA, Brazil]>
        <[string8][icao][SBTL]>
        <[string8][country][br]>
        <[string8][coordinate_system][lonlat]>
        <[vector2_float64][position][-50.651592 -24.317774]>
        <[float64][height][795.5]>
        <[float64][size][5000]>
        <[vector2_float64][tower_position][0 0]>
        <[float64][tower_height][0.0]>
        <[bool][autoheight][true]>
		<[list_tmsimulator_runway][runways][]
		  <[tmsimulator_runway][element][0]
			<[string8][name1][02]>
			<[tmvector2d][threshold1][-50.651917 -24.325894]>
			<[tmvector2d][endpoint1][-50.651917 -24.325894]>
			<[string8]   [appltsys1][none]>
			<[string8]   [papi1][none]>
			<[string8]   [reil1][none]>
			<[string8][name2][20]>
			<[tmvector2d][threshold2][-50.651267 -24.309653]>
			<[tmvector2d][endpoint2][-50.651267 -24.309653]>
			<[string8]   [appltsys2][none]>
			<[string8]   [papi2][none]>
			<[string8]   [reil2][none]>
			<[float64][width][29.87]>
		  >
		>
		<[list_tmsimulator_helipad][helipads][]
		>
		<[list_tmsimulator_parking_position][parking_positions][]
		>
    >
>
